12

Fe 2.5762 3.5205 -3.0802
Fe -3.1352 -0.5418 4.0117
Fe -1.8474 -1.0078 -2.2567
Fe 1.5920 -1.0678 -3.7134
Fe 4.2127 3.7447 3.5287
Fe 1.9170 -3.9957 -3.0390
Fe -1.6488 2.2315 1.7422
Fe -2.3631 -1.0363 -4.5359
Fe 0.7929 -1.0343 1.3425
Fe 4.7939 4.4614 4.7948
Fe -4.2411 2.9198 -3.0666
Fe -3.2738 2.5856 3.2888
